39
TIP5P (H2O)13 energy -535.4792 kJ/mol
O    -0.0080446352030000    -1.9512306530000001     0.0236875106100000
H    -0.0359889476978080    -1.4233851064241512     0.8217038226984411
H    -0.8186940214137925    -2.4598294575601463     0.0438535373891169
O     0.0373011311900000    -0.4760021228000000     2.2781090260000001
H     0.7983644324264487     0.0935342845117558     2.1656689430335749
H     0.2025334763464957    -0.9378638706923674     3.1000663472447787
O     1.3086791010000001     2.7800365849999999    -0.0106678169800000
H     1.5304714459678095     3.7108451843933210    -0.0358739076948440
H     0.3517273978188624     2.7609799337643359    -0.0212565762275644
O    -1.3241666900000000     2.7283593680000000    -0.0339707909000000
H    -1.6746223300328591     2.2425678013344155     0.7126343511434743
H    -1.6696203209204847     2.2716403642604104    -0.8009788615922002
O    -3.5580694810000000    -0.4106886282000000    -0.0443872589300000
H    -3.2359285466890517     0.0928495700849604     0.7032131298534765
H    -3.2260820878523107     0.0577890200006981    -0.8102494553644136
O    -2.1837372190000002     0.9856648347000000    -1.9191766250000000
H    -2.5103807326362637     1.2145873163710177    -2.7893090013571489
H    -1.4093470213177970     0.4486947226235171    -2.0871491241487843
O     3.6012186260000001    -0.4129513363000000     0.0419363561900000
H     4.5518668506161770    -0.5204580170372242     0.0726301117597548
H     3.2600156042629265    -1.3061486685315611    -0.0029062981907671
O     2.1526046690000000     0.9995478738000000     1.8427515649999999
H     2.7836947275879358     0.5101998533458055     1.3150246537769343
H     1.9139041935673349     1.7491719735927607     1.2974831613324911
O     2.5147772650000002    -2.8248182239999999    -0.1681265924000000
H     1.5821220092745218    -2.6589949716241703    -0.0306905602281396
H     2.5560234833213764    -3.2819619601337928    -1.0080969454410009
O    -2.5219562670000002    -2.8449072759999998     0.1538800417000000
H    -2.9857352394861456    -2.0077570490747814     0.1359802584959773
H    -2.9335721213731611    -3.3621458788415963    -0.5384121337282127
O     2.1654405109999999     0.9505642425000000    -1.8047812130000001
H     2.7982992695979050     0.4857132041884107    -1.2573918234000954
H     1.9062645669842320     1.7086652652062138    -1.2810040567442800
O    -0.0451375408400000    -0.4874388786000000    -2.2352728669999999
H     0.0201763103383360    -1.0608940205725808    -1.4716531049525123
H     0.7700465102022414     0.0142268750805474    -2.2290862273232848
O    -2.1751670280000002     0.9655212341000000     1.8307841499999999
H    -2.5324373144067605     1.2079826554699262     2.6850687873417391
H    -1.4129813315270667     0.4234767366384246     2.0344813931421157
