48
TIP5P (H2O)16 energy -685.2407 kJ/mol
O     0.7256508809000000    -2.9074478689999999     0.9439403004000000
H     0.2328320071080958    -2.4032462303572046     1.5913521517159916
H     0.1834089300823530    -2.8807842669140049     0.1555910382723099
O     3.0930020279999999    -1.8468585060000000     0.5479464568000000
H     3.7223218915350813    -2.5380788641359295     0.7538657756086642
H     2.2371371480945190    -2.2523833181147515     0.6867872797004468
O     3.0278160189999999     0.5292317794000000     1.8111803760000000
H     3.1394078599112021    -0.3579426292037091     1.4695655786613766
H     3.1412106950509124     1.0961705894546250     1.0483213634051725
O    -3.0399708099999998    -0.8299566472000000     1.6876400540000001
H    -3.1284505677826351     0.1069306680578419     1.5125819751470662
H    -3.1479766516620744    -1.2452240439040243     0.8320001955306023
O    -0.6307431578000000     2.7288408689999999     1.3874154580000000
H    -0.5372605177481892     3.5162252333693673     1.9236231591341699
H    -0.1816080360862236     2.0452115745326944     1.8845678191422222
O    -3.0468877179999998     1.7386468040000000     0.8437976426000000
H    -2.1874806546670267     2.1207616281550621     1.0216728816141529
H    -3.6703591116040499     2.3929649989546897     1.1590482748097728
O     0.6086258837000000     0.9498668284000000     2.8451583170000001
H     0.2195347780620590     0.0756552612195834     2.8207844104315996
H     1.5179193374690949     0.8153770193040031     2.5780820241883875
O    -0.6830641737000001     1.4163613269999999    -2.6801858059999999
H    -0.8648121834348255     1.8373846368806996    -3.5203874922007183
H    -1.5466484728834655     1.2014912216410414    -2.3276452607760030
O     3.0278149540000001    -0.5292309376000000    -1.8111824000000001
H     3.1394067753846961     0.3579435021136825    -1.4695676770755330
H     3.1412102998395799    -1.0961697162033732    -1.0483234635919390
O    -3.0399721730000002     0.8299557907000000    -1.6876380129999999
H    -3.1284515509620090    -0.1069315493137157    -1.5125798746645303
H    -3.1479775578937490     1.2452231573322465    -0.8319980822789791
O     3.0930011440000000     1.8468593659999999    -0.5479485245000000
H     3.7223206759729499     2.5380799004405117    -0.7538682647997599
H     2.2371360574926076     2.2523839384354014    -0.6867887738831636
O    -0.6830619814000000    -1.4163615240000000     2.6801862679999999
H    -0.8648093107186163    -1.8373848844360849     3.5203880760512902
H    -1.5466465767467370    -1.2014916597939800     2.3276463012786368
O     0.6086242437000000    -0.9498666642000000    -2.8451587200000001
H     1.5179178388167025    -0.8153766004086511    -2.5780830366794438
H     0.2195329096261397    -0.0756552059528597    -2.8207845529776607
O     0.7256494342000001     2.9074480660000002    -0.9439407822000000
H     0.2328302678972108     2.4032462890477775    -1.5913523031376842
H     0.1834080190510834     2.8807843122900971    -0.1555911567574566
O    -0.6307433233000000    -2.7288410509999999    -1.3874150310000000
H    -0.5372608223505582    -3.5162253890894477    -1.9236227949755698
H    -0.1816087257974636    -2.0452116308278452    -1.8845676928668746
O    -3.0468877960000000    -1.7386476620000000    -0.8437955968999999
H    -2.1874807449224747    -2.1207622454961763    -1.0216714121132437
H    -3.6703592177402151    -2.3929660316451380    -1.1590458108859132
