51
TIP5P (H2O)17 energy -729.4807 kJ/mol
O    -2.3273107430000000    -2.7145867589999999     0.2361358183000000
H    -2.5062284542469042    -2.3982114898392313     1.1216452658304152
H    -1.4275598759109616    -2.4394036615046342     0.0601969652135359
O     3.8743496589999999    -1.3904197869999999     1.2806745550000000
H     4.3581627466707875    -0.8044890176849040     0.6985733011203342
H     3.3570962286683659    -0.8054106966816583     1.8342493855830611
O    -3.8868742159999998    -1.3703543629999999    -1.3988516390000001
H    -4.4017231415400282    -1.9700714827143695    -1.9387607055952731
H    -3.3188374138385921    -1.9409821725827929    -0.8812128321848748
O     2.8027267530000000    -0.8939132717000000    -2.4043381899999998
H     2.6058900895923625    -1.7092589567318233    -1.9431456251872787
H     1.9499899151544469    -0.4779367039389113    -2.5309684409468893
O    -2.7868011099999999    -1.0462788199999999     2.4052499759999999
H    -3.2569821206843805    -1.2041110172393039     3.2239383506007560
H    -3.3903042481626655    -0.5215844521585574     1.8792161153186895
O     2.3449550590000001     0.5260118227000000     2.4976463849999999
H     1.4050861225230706     0.3755974872637255     2.3963855833984433
H     2.4543955170850476     0.7466936085197208     3.4226081007166855
O    -0.3104819899000000     0.1272684401000000     1.9676225599999999
H    -1.0625324731892789    -0.2293692707713498     2.4403396569711231
H    -0.1704103482110863    -0.4833049366510987     1.2438740354437599
O    -3.2158088910000000     2.2577517700000000    -0.3763472891000000
H    -2.4244039232572745     2.3931021171678437     0.1447959738840672
H    -3.5921035562271060     3.1325719596141699    -0.4729071190762836
O    -4.4700201220000002     0.1922802507000000     0.7805120857000000
H    -4.1384019690419267     1.0268600786185313     0.4492451971340720
H    -4.5441930240129897    -0.3618822328670250     0.0035731161446050
O     2.3689946329999998    -2.7482480210000002    -0.3970134015000000
H     2.5264698499149363    -3.6896310040017406    -0.3246844628077989
H     2.9493007463969945    -2.3569840083921507     0.2559713817775889
O     0.0330170977100000    -1.5297985260000000    -0.0603341642500000
H     0.0804457665728029    -0.9487458091490196    -0.8195180033891099
H     0.8213572534135087    -2.0692647602062682    -0.1213900489514473
O     0.2651752920000000     0.2617807265000000    -1.9832594340000000
H     0.4970490798466135     1.1239811222728371    -1.6381842769126962
H    -0.5978436276118243     0.3855749341646703    -2.3783609127883198
O     4.5204471919999998     0.2956355870000000    -0.7750704236000000
H     5.3372622222763066     0.4322503131789742    -1.2550511137384266
H     3.9190442325384023    -0.0697783621572159    -1.4239301666201389
O    -0.9853081940000000     2.5414152429999999     0.9498026778000001
H    -0.2753705764781949     2.6741448516188475     0.3216281238555163
H    -0.7471429206039120     1.7396192539293671     1.4152404657571163
O     3.1546535119999999     2.2040996960000001     0.5151488434000000
H     2.9239230898555171     1.7193026137505065     1.3075925961922137
H     3.7630259139553424     1.6292665778024733     0.0507333540347162
O     0.9719617689000000     2.6181939660000002    -0.8556944686000000
H     1.1204263352083026     3.4003778347025535    -1.3870874569733833
H     1.7929918820891813     2.4917497057123188    -0.3801387491760171
O    -2.3797934249999999     0.6684581163000000    -2.4279498589999999
H    -2.8944893238746774    -0.1119426126000995    -2.2222931693111350
H    -2.6955058249296235     1.3325329444515912    -1.8151186072298957
