57
TIP5P (H2O)19 energy -833.3290 kJ/mol
O     0.1737908355000000     0.3737657493000000    -2.1466175779999999
H     0.0965460702521817     1.0146314964359828    -1.4398246943419593
H     0.9599756787753013     0.6374220228589373    -2.6247709023816310
O    -2.5855184300000000     1.5636655239999999     2.5509084629999998
H    -2.7405060718011138     1.8108609769680974     3.4625581100250109
H    -1.6880907594382613     1.2308420538115930     2.5417458322708395
O     4.2278252800000002    -0.3907933102000000    -1.1449920389999999
H     5.0833539593761490    -0.7008095582182479    -1.4419641668665579
H     3.7452506888167658    -1.1886657302112391    -0.9287671437410501
O     2.9352229230000000    -2.5851469549999999    -0.5127634900000000
H     2.0462302372752648    -2.5810233920843588    -0.8675970297856338
H     2.8156184395032828    -2.6679364547989022     0.4333192263892869
O     2.6766156010000000     1.2305365580000001    -2.6725739350000000
H     3.2811583222258713     0.5973930543960391    -2.2854186146737514
H     2.7540660067255978     2.0066224955209711    -2.1176650305524887
O    -4.1728669429999998    -0.1315629051000000     1.1377837060000000
H    -4.2186316081463664     0.3749619184785333     0.3268767825354282
H    -3.6922653143254176     0.4308140871739907     1.7452259115440334
O     3.9421887039999999     1.3063287269999999     0.9361056181000000
H     4.1769035425297520     0.6845515861326744     0.2472413559490254
H     3.5015396729252712     2.0201597218754004     0.4751223405637104
O    -2.4536082270000001    -0.0779728226100000    -2.7865883779999998
H    -1.5315396961121455     0.1788360767493283    -2.7949939449745673
H    -2.4419174911918127    -1.0069003896871243    -2.5559615325972183
O     0.3226508979000000    -2.0655342000000001    -1.1579914819999999
H     0.3371294326961988    -1.1901431585925768    -1.5449187835099640
H    -0.3279922662151142    -2.5441979887527855    -1.6715830418285287
O     0.0350827455500000     2.0800732680000000    -0.1076910901000000
H    -0.7618574332718679     2.6091981985737873    -0.0738532529254055
H     0.0227837452052321     1.5753982864406384     0.7055639360625060
O    -2.3897999720000001     3.0789290309999999     0.2794590151000000
H    -2.9911613531662185     2.6122651709020062    -0.3009039497076267
H    -2.6195477108886278     2.7751319513367565     1.1576134154554549
O     2.4959531070000001     0.1437962236000000     2.8081466079999999
H     3.0067803772434853     0.5636466974847169     2.1160390155301814
H     2.9572450602525566     0.3677833483996641     3.6163986366324194
O    -2.3083533749999998    -2.6223592359999999    -1.8532638459999999
H    -2.8016534391422967    -3.3288691397330465    -2.2700739258257254
H    -2.6139213174873515    -2.6190192032160513    -0.9461536450293297
O    -3.9162679919999999     1.3384278560000000    -1.1121391150000000
H    -3.3574741242037884     0.8480257681137344    -1.7150379833934823
H    -4.6600035874246730     1.6165564077148227    -1.6466797709087184
O    -0.0936058843300000     0.5889200134000000     2.0966403520000001
H     0.7418330769064880     0.5669162665223857     2.5633194892789706
H    -0.2549232796343306    -0.3218490668265331     1.8502499697292190
O    -0.4286477284000000    -1.9207353270000000     1.3547623760000000
H    -0.1163387396485053    -1.9973791578868016     0.4531967052183234
H    -1.3288334577230245    -2.2448158716219093     1.3252785953614559
O    -3.0292475479999998    -2.4608222999999998     0.7500029175000000
H    -3.5961600482433127    -3.0840034800308533     1.2044116255187050
H    -3.4526858331041690    -1.6122634460397489     0.8799249328542373
O     2.4823280290000000     2.9993274109999999    -0.5902622579000000
H     2.5104913317055741     3.9559185760277336    -0.5709746615853124
H     1.5722150852705798     2.7819167379167595    -0.3886218133317970
O     2.2075075339999999    -2.4533981130000000     2.0810267680000001
H     1.2529758153239379    -2.5214543183403024     2.1026922002828479
H     2.3934142466238404    -1.5776462204368733     2.4197436953501095
