12
FinalOpt.out 	FINAL SINGLE POINT ENERGY     -305.087963729 
  H      2.455801   -0.791763    0.647937
  O      1.874325   -0.518470   -0.071895
  H      1.117648    1.087493    0.009353
  H      1.104807   -1.130622   -0.025806
  O      0.525847    1.873112    0.063610
  H      0.849565    2.476209   -0.616321
  H     -1.105049    1.130778    0.025617
  O     -1.874555    0.518577    0.071324
  H     -2.455434    0.791514   -0.649125
  H     -1.117797   -1.087421   -0.008934
  O     -0.526052   -1.873081   -0.062887
  H     -0.849514   -2.475696    0.617597
