12
FinalOpt.out 	FINAL SINGLE POINT ENERGY     -305.089278551 
  H     -0.253886   -2.541866   -0.695645
  O     -0.066553   -1.941957    0.036701
  H      1.318357   -0.829113   -0.052567
  H     -0.829250   -1.318741    0.052492
  O      1.941608   -0.066441   -0.036740
  H      2.541542   -0.253969    0.695536
  H      0.829193    1.318782    0.053086
  O      0.066547    1.942070    0.036793
  H      0.254203    2.541606   -0.695769
  H     -1.318301    0.829136   -0.052599
  O     -1.941653    0.066532   -0.036782
  H     -2.541440    0.254002    0.695629
